---- qbsp / ericw-tools v0.18.1 ----
Input file: testlevel.map
Output file: testlevel.bsp

---- LoadMapFile ----
*** WARNING 06: No info_player_deathmatch entities in level
          130 faces
           22 brushes
            2 entities
            3 unique texnames
            9 texinfo

Opened WAD: D:/Quake-Multiplayer-Map/wads/prototype_1_2.wad
Processing hull 0...
---- Brush_LoadEntity ----
           22 brushes
           52 planes
---- CSGFaces ----
          130 brushfaces
          141 csgfaces
          117 mergedfaces
---- SolidBSP ----
          274 split nodes
           95 solid leafs
          180 empty leafs
            0 water leafs
            0 detail leafs
            0 detail illusionary leafs
            0 detail fence leafs
            0 illusionary visblocker leafs
          399 leaffaces
          389 nodefaces
---- Portalize ----
          180 vis leafs
          180 vis clusters
          472 vis portals
---- FillOutside ----
          127 outleafs
---- MergeAll ----
           92 mergefaces
---- SolidBSP ----
           58 split nodes
           23 solid leafs
           36 empty leafs
            0 water leafs
            0 detail leafs
            0 detail illusionary leafs
            0 detail fence leafs
            0 illusionary visblocker leafs
          184 leaffaces
          139 nodefaces
---- Portalize ----
           36 vis leafs
           36 vis clusters
          114 vis portals
---- Tjunc ----
          160 world edges
          503 edge points
          124 edges added by tjunctions
            0 faces added by tjunctions
---- MakeFaceEdges ----
---- GrowRegions ----
Processing hull 1...
*** WARNING 19: No entities in empty space -- no filling performed (hull 1)
Processing hull 2...
*** WARNING 19: No entities in empty space -- no filling performed (hull 2)
*** WARNING 16: Texture __TB_empty not found
---- WriteBSPFile ----
Wrote testlevel.bsp
          106 planes             2120
          197 vertexes           2364
           58 nodes              1392
            7 texinfo             280
          139 faces              2780
          468 clipnodes          3744
           37 leafs              1036
          184 marksurfaces        368
          676 surfedges          2704
          339 edges              1356
            3 textures          10976
              lightdata             0
              visdata               0
              entdata             155

0.496 seconds elapsed
Peak memory usage: 1617224 (1.5M)
