---- qbsp / ericw-tools v0.18.1 ----
Input file: thearena.map
Output file: thearena.bsp

---- LoadMapFile ----
         1095 faces
          182 brushes
           31 entities
            5 unique texnames
           33 texinfo

Opened WAD: D:/Quake-Multiplayer-Map/wads/prototype_1_2.wad
Processing hull 0...
---- Brush_LoadEntity ----
          182 brushes
          123 planes
---- CSGFaces ----
         1095 brushfaces
          814 csgfaces
          480 mergedfaces
---- SolidBSP ----
          969 split nodes
          422 solid leafs
          548 empty leafs
            0 water leafs
            0 detail leafs
            0 detail illusionary leafs
            0 detail fence leafs
            0 illusionary visblocker leafs
         2213 leaffaces
         2101 nodefaces
---- Portalize ----
          548 vis leafs
          548 vis clusters
         1266 vis portals
---- FillOutside ----
          354 outleafs
---- MergeAll ----
          277 mergefaces
---- SolidBSP ----
          219 split nodes
          118 solid leafs
          102 empty leafs
            0 water leafs
            0 detail leafs
            0 detail illusionary leafs
            0 detail fence leafs
            0 illusionary visblocker leafs
          911 leaffaces
          730 nodefaces
---- Portalize ----
          102 vis leafs
          102 vis clusters
          228 vis portals
---- Tjunc ----
          602 world edges
         2638 edge points
          768 edges added by tjunctions
            0 faces added by tjunctions
---- MakeFaceEdges ----
---- GrowRegions ----
Processing hull 1...
*** WARNING 19: No entities in empty space -- no filling performed (hull 1)
Processing hull 2...
*** WARNING 19: No entities in empty space -- no filling performed (hull 2)
---- WriteBSPFile ----
Wrote thearena.bsp
          305 planes             6100
         1086 vertexes          13032
          219 nodes              5256
           22 texinfo             880
          730 faces             14600
         1859 clipnodes         14872
          103 leafs              2884
          911 marksurfaces       1822
         3681 surfedges         14724
         1856 edges              7424
            5 textures         109024
              lightdata             0
              visdata               0
              entdata            1897

0.368 seconds elapsed
Peak memory usage: 8587918 (8.2M)
