---- qbsp / ericw-tools v0.18.1 ----
Input file: thearena.map
Output file: thearena.bsp

---- LoadMapFile ----
*** WARNING 05: No info_player_start entity in level
          530 faces
           89 brushes
           26 entities
            5 unique texnames
           15 texinfo

Opened WAD: D:/Quake-Multiplayer-Map/wads/prototype_1_2.wad
Processing hull 0...
---- Brush_LoadEntity ----
           89 brushes
           70 planes
---- CSGFaces ----
          530 brushfaces
          419 csgfaces
          228 mergedfaces
---- SolidBSP ----
          454 split nodes
          195 solid leafs
          260 empty leafs
            0 water leafs
            0 detail leafs
            0 detail illusionary leafs
            0 detail fence leafs
            0 illusionary visblocker leafs
          733 leaffaces
          684 nodefaces
---- Portalize ----
          260 vis leafs
          260 vis clusters
          576 vis portals
---- FillOutside ----
*** WARNING 10: Reached occupant at (-464 -64 0), no filling performed.
Leak file written to thearena.pts
---- MakeFaceEdges ----
---- GrowRegions ----
Processing hull 1...
Processing hull 2...
*** WARNING 19: No entities in empty space -- no filling performed (hull 2)
---- WriteBSPFile ----
Wrote thearena.bsp
          218 planes             4360
          819 vertexes           9828
          454 nodes             10896
           14 texinfo             560
          684 faces             13680
          810 clipnodes          6480
          261 leafs              7308
          733 marksurfaces       1466
         2732 surfedges         10928
         1756 edges              7024
            5 textures         109024
              lightdata             0
              visdata               0
              entdata            1630

0.367 seconds elapsed
Peak memory usage: 4927730 (4.7M)
