---- qbsp / ericw-tools v0.18.1 ----
Input file: thearena.map
Output file: thearena.bsp

---- LoadMapFile ----
         3502 faces
          587 brushes
          138 entities
           16 unique texnames
           90 texinfo

Opened WAD: D:/Quake-Multiplayer-Map/wads/prototype_1_2.wad
Opened WAD: D:/Quake-Multiplayer-Map/wads/rogue.wad
Processing hull 0...
---- Brush_LoadEntity ----
          587 brushes
          175 planes
---- CSGFaces ----
         3502 brushfaces
         1610 csgfaces
          820 mergedfaces
---- SolidBSP ----
         1041 split nodes
          459 solid leafs
          583 empty leafs
            0 water leafs
            0 detail leafs
            0 detail illusionary leafs
            0 detail fence leafs
            0 illusionary visblocker leafs
         2930 leaffaces
         2796 nodefaces
---- Portalize ----
          583 vis leafs
          583 vis clusters
         1327 vis portals
---- FillOutside ----
*** WARNING 10: Reached occupant at (-1164 -116 364), no filling performed.
Leak file written to thearena.pts
---- MakeFaceEdges ----
---- GrowRegions ----
Processing hull 1...
*** WARNING 10: Reached occupant at (-1164 -116 364), no filling performed.
Processing hull 2...
*** WARNING 10: Reached occupant at (-1164 -116 364), no filling performed.
---- WriteBSPFile ----
Wrote thearena.bsp
          354 planes             7080
         3642 vertexes          43704
         1041 nodes             24984
           63 texinfo            2520
         2796 faces             55920
         1852 clipnodes         14816
          584 leafs             16352
         2930 marksurfaces       5860
        11158 surfedges         44632
         7417 edges             29668
           16 textures         136708
              lightdata             0
              visdata               0
              entdata            8414

0.854 seconds elapsed
Peak memory usage: 17230380 (16.4M)
