---- qbsp / ericw-tools v0.18.1 ----
Input file: thearena.map
Output file: thearena.bsp

---- LoadMapFile ----
         3502 faces
          587 brushes
           31 entities
           16 unique texnames
           90 texinfo

Opened WAD: D:/Quake-Multiplayer-Map/wads/prototype_1_2.wad
Opened WAD: D:/Quake-Multiplayer-Map/wads/rogue.wad
Processing hull 0...
---- Brush_LoadEntity ----
          587 brushes
          175 planes
---- CSGFaces ----
         3502 brushfaces
         1610 csgfaces
          820 mergedfaces
---- SolidBSP ----
         1041 split nodes
          459 solid leafs
          583 empty leafs
            0 water leafs
            0 detail leafs
            0 detail illusionary leafs
            0 detail fence leafs
            0 illusionary visblocker leafs
         2930 leaffaces
         2796 nodefaces
---- Portalize ----
          583 vis leafs
          583 vis clusters
         1327 vis portals
---- FillOutside ----
          375 outleafs
---- MergeAll ----
          604 mergefaces
---- SolidBSP ----
          259 split nodes
          150 solid leafs
          110 empty leafs
            0 water leafs
            0 detail leafs
            0 detail illusionary leafs
            0 detail fence leafs
            0 illusionary visblocker leafs
         1363 leaffaces
         1222 nodefaces
---- Portalize ----
          110 vis leafs
          110 vis clusters
          270 vis portals
---- Tjunc ----
          948 world edges
         4200 edge points
         1100 edges added by tjunctions
            0 faces added by tjunctions
---- MakeFaceEdges ----
---- GrowRegions ----
Processing hull 1...
*** WARNING 19: No entities in empty space -- no filling performed (hull 1)
Processing hull 2...
*** WARNING 19: No entities in empty space -- no filling performed (hull 2)
---- WriteBSPFile ----
Wrote thearena.bsp
          331 planes             6620
         1763 vertexes          21156
          259 nodes              6216
           40 texinfo            1600
         1222 faces             24440
         1852 clipnodes         14816
          111 leafs              3108
         1363 marksurfaces       2726
         6018 surfedges         24072
         3026 edges             12104
           16 textures         136708
              lightdata             0
              visdata               0
              entdata            1937

0.651 seconds elapsed
Peak memory usage: 14316346 (13.7M)
