---- qbsp / ericw-tools v0.18.1 ----
Input file: thearena.map
Output file: thearena.bsp

---- LoadMapFile ----
*** WARNING 05: No info_player_start entity in level
          530 faces
           89 brushes
            7 entities
            5 unique texnames
           15 texinfo

Opened WAD: D:/Quake-Multiplayer-Map/wads/prototype_1_2.wad
Processing hull 0...
---- Brush_LoadEntity ----
           89 brushes
           70 planes
---- CSGFaces ----
          530 brushfaces
          419 csgfaces
          228 mergedfaces
---- SolidBSP ----
          454 split nodes
          195 solid leafs
          260 empty leafs
            0 water leafs
            0 detail leafs
            0 detail illusionary leafs
            0 detail fence leafs
            0 illusionary visblocker leafs
          733 leaffaces
          684 nodefaces
---- Portalize ----
          260 vis leafs
          260 vis clusters
          576 vis portals
---- FillOutside ----
          138 outleafs
---- MergeAll ----
          165 mergefaces
---- SolidBSP ----
          103 split nodes
           54 solid leafs
           50 empty leafs
            0 water leafs
            0 detail leafs
            0 detail illusionary leafs
            0 detail fence leafs
            0 illusionary visblocker leafs
          333 leaffaces
          247 nodefaces
---- Portalize ----
           50 vis leafs
           50 vis clusters
          106 vis portals
---- Tjunc ----
          269 world edges
          990 edge points
          315 edges added by tjunctions
            0 faces added by tjunctions
---- MakeFaceEdges ----
---- GrowRegions ----
Processing hull 1...
Processing hull 2...
*** WARNING 19: No entities in empty space -- no filling performed (hull 2)
---- WriteBSPFile ----
Wrote thearena.bsp
          208 planes             4160
          397 vertexes           4764
          103 nodes              2472
           12 texinfo             480
          247 faces              4940
          810 clipnodes          6480
           51 leafs              1428
          333 marksurfaces        666
         1324 surfedges          5296
          663 edges              2652
            5 textures         109024
              lightdata             0
              visdata               0
              entdata             537

0.440 seconds elapsed
Peak memory usage: 4077010 (3.9M)
