---- qbsp / ericw-tools v0.18.1 ----
Input file: zombiemap.map
Output file: zombiemap.bsp

---- LoadMapFile ----
*** WARNING 06: No info_player_deathmatch entities in level
           60 faces
           10 brushes
           11 entities
            4 unique texnames
           15 texinfo

Opened WAD: D:/QuakeDev/wads/START.WAD
Processing hull 0...
---- Brush_LoadEntity ----
           10 brushes
           22 planes
---- CSGFaces ----
           60 brushfaces
           72 csgfaces
           66 mergedfaces
---- SolidBSP ----
          131 split nodes
           47 solid leafs
           85 empty leafs
            0 water leafs
            0 detail leafs
            0 detail illusionary leafs
            0 detail fence leafs
            0 illusionary visblocker leafs
          296 leaffaces
          290 nodefaces
---- Portalize ----
           85 vis leafs
           85 vis clusters
          174 vis portals
---- FillOutside ----
           73 outleafs
---- MergeAll ----
           38 mergefaces
---- SolidBSP ----
           22 split nodes
           14 solid leafs
            9 empty leafs
            0 water leafs
            0 detail leafs
            0 detail illusionary leafs
            0 detail fence leafs
            0 illusionary visblocker leafs
          108 leaffaces
           92 nodefaces
---- Portalize ----
            9 vis leafs
            9 vis clusters
           12 vis portals
---- Tjunc ----
           70 world edges
          306 edge points
           64 edges added by tjunctions
            0 faces added by tjunctions
---- MakeFaceEdges ----
---- GrowRegions ----
Processing hull 1...
Processing hull 2...
---- WriteBSPFile ----
Wrote zombiemap.bsp
           37 planes              740
          118 vertexes           1416
           22 nodes               528
            6 texinfo             240
           92 faces              1840
           66 clipnodes           528
           10 leafs               280
          108 marksurfaces        216
          432 surfedges          1728
          217 edges               868
            4 textures          23732
              lightdata             0
              visdata               0
              entdata             747

0.413 seconds elapsed
Peak memory usage: 827812 (0.8M)
